
     RDKit          3D

 14 14  0  0  0  0  0  0  0  0999 V2000
   -2.7182    0.6617    0.0368 O   0  0  0  0  0  0  0  0  0  0  0  0
   -1.4039    0.3024    0.0065 C   0  0  0  0  0  0  0  0  0  0  0  0
   -0.9940   -0.9796    0.3575 C   0  0  0  0  0  0  0  0  0  0  0  0
    0.3652   -1.3017    0.3108 C   0  0  0  0  0  0  0  0  0  0  0  0
    1.3067   -0.3438   -0.0808 C   0  0  0  0  0  0  0  0  0  0  0  0
    3.0313   -0.7770   -0.1424 S   0  0  0  0  0  0  0  0  0  0  0  0
    0.8780    0.9385   -0.4370 C   0  0  0  0  0  0  0  0  0  0  0  0
   -0.4799    1.2618   -0.3906 C   0  0  0  0  0  0  0  0  0  0  0  0
   -3.2435   -0.1036    0.3229 H   0  0  0  0  0  0  0  0  0  0  0  0
   -1.7082   -1.7363    0.6658 H   0  0  0  0  0  0  0  0  0  0  0  0
    0.6835   -2.3056    0.5829 H   0  0  0  0  0  0  0  0  0  0  0  0
    3.5095    0.4303    0.1914 H   0  0  0  0  0  0  0  0  0  0  0  0
    1.5889    1.6954   -0.7574 H   0  0  0  0  0  0  0  0  0  0  0  0
   -0.8154    2.2576   -0.6664 H   0  0  0  0  0  0  0  0  0  0  0  0
  1  2  1  0
  2  3  1  0
  3  4  2  0
  4  5  1  0
  5  6  1  0
  5  7  2  0
  7  8  1  0
  8  2  2  0
  1  9  1  0
  3 10  1  0
  4 11  1  0
  6 12  1  0
  7 13  1  0
  8 14  1  0
M  END
