
     RDKit          3D

 13 12  0  0  0  0  0  0  0  0999 V2000
   -2.2860    0.4766    0.1874 C   0  0  0  0  0  0  0  0  0  0  0  0
   -1.1649   -0.2392   -0.5102 C   0  0  0  0  0  0  0  0  0  0  0  0
   -1.3456   -0.9751   -1.4675 O   0  0  0  0  0  0  0  0  0  0  0  0
    0.0025    0.0828    0.1045 O   0  0  0  0  0  0  0  0  0  0  0  0
    1.1432   -0.4693   -0.3840 C   0  0  0  0  0  0  0  0  0  0  0  0
    2.3012    0.0192    0.4384 C   0  0  0  0  0  0  0  0  0  0  0  0
    1.2778   -1.2366   -1.3239 O   0  0  0  0  0  0  0  0  0  0  0  0
   -2.1358    1.5571    0.1194 H   0  0  0  0  0  0  0  0  0  0  0  0
   -3.2343    0.2266   -0.2974 H   0  0  0  0  0  0  0  0  0  0  0  0
   -2.3360    0.1590    1.2320 H   0  0  0  0  0  0  0  0  0  0  0  0
    2.1746   -0.2907    1.4788 H   0  0  0  0  0  0  0  0  0  0  0  0
    2.3749    1.1074    0.3662 H   0  0  0  0  0  0  0  0  0  0  0  0
    3.2284   -0.4177    0.0562 H   0  0  0  0  0  0  0  0  0  0  0  0
  1  2  1  0
  2  3  2  0
  2  4  1  0
  4  5  1  0
  5  6  1  0
  5  7  2  0
  1  8  1  0
  1  9  1  0
  1 10  1  0
  6 11  1  0
  6 12  1  0
  6 13  1  0
M  END
