
     RDKit          3D

  6  5  0  0  0  0  0  0  0  0999 V2000
   -0.4862   -0.0091   -0.0056 C   0  0  0  0  0  0  0  0  0  0  0  0
    0.9754    0.0182    0.0113 C   0  0  0  0  0  0  0  0  0  0  0  0
    2.1353    0.0398    0.0247 N   0  0  0  0  0  0  0  0  0  0  0  0
   -0.8534   -0.6826   -0.7856 H   0  0  0  0  0  0  0  0  0  0  0  0
   -0.8797   -0.3548    0.9549 H   0  0  0  0  0  0  0  0  0  0  0  0
   -0.8914    0.9885   -0.1996 H   0  0  0  0  0  0  0  0  0  0  0  0
  1  2  1  0
  2  3  3  0
  1  4  1  0
  1  5  1  0
  1  6  1  0
M  END
