
     RDKit          3D

  8  7  0  0  0  0  0  0  0  0999 V2000
   -0.9505   -0.1281   -0.0914 C   0  0  0  0  0  0  0  0  0  0  0  0
    0.4581    0.2590    0.2161 C   0  0  0  0  0  0  0  0  0  0  0  0
    0.8193    1.1400    0.9769 O   0  0  0  0  0  0  0  0  0  0  0  0
    1.3539   -0.4882   -0.4549 O   0  0  0  0  0  0  0  0  0  0  0  0
   -1.1494    0.0128   -1.1566 H   0  0  0  0  0  0  0  0  0  0  0  0
   -1.1203   -1.1683    0.1974 H   0  0  0  0  0  0  0  0  0  0  0  0
   -1.6330    0.5086    0.4787 H   0  0  0  0  0  0  0  0  0  0  0  0
    2.2218   -0.1358   -0.1661 H   0  0  0  0  0  0  0  0  0  0  0  0
  1  2  1  0
  2  3  2  0
  2  4  1  0
  1  5  1  0
  1  6  1  0
  1  7  1  0
  4  8  1  0
M  END
