
     RDKit          3D

 14 14  0  0  0  0  0  0  0  0999 V2000
    2.9552   -0.9036   -0.4551 O   0  0  0  0  0  0  0  0  0  0  0  0
    2.3628    0.0663    0.0165 C   0  0  0  0  0  0  0  0  0  0  0  0
    3.1980    1.4559    0.6811 Cl  0  0  0  0  0  0  0  0  0  0  0  0
    0.8631    0.0285    0.0081 C   0  0  0  0  0  0  0  0  0  0  0  0
    0.0886    1.0792    0.5199 C   0  0  0  0  0  0  0  0  0  0  0  0
   -1.3072    1.0034    0.4925 C   0  0  0  0  0  0  0  0  0  0  0  0
   -1.9385   -0.1175   -0.0440 C   0  0  0  0  0  0  0  0  0  0  0  0
   -1.1784   -1.1670   -0.5551 C   0  0  0  0  0  0  0  0  0  0  0  0
    0.2160   -1.0955   -0.5297 C   0  0  0  0  0  0  0  0  0  0  0  0
    0.5433    1.9693    0.9461 H   0  0  0  0  0  0  0  0  0  0  0  0
   -1.9034    1.8214    0.8908 H   0  0  0  0  0  0  0  0  0  0  0  0
   -3.0245   -0.1732   -0.0637 H   0  0  0  0  0  0  0  0  0  0  0  0
   -1.6696   -2.0422   -0.9739 H   0  0  0  0  0  0  0  0  0  0  0  0
    0.7947   -1.9250   -0.9335 H   0  0  0  0  0  0  0  0  0  0  0  0
  1  2  2  0
  2  3  1  0
  2  4  1  0
  4  5  2  0
  5  6  1  0
  6  7  2  0
  7  8  1  0
  8  9  2  0
  9  4  1  0
  5 10  1  0
  6 11  1  0
  7 12  1  0
  8 13  1  0
  9 14  1  0
M  END
