
     RDKit          3D

 13 12  0  0  0  0  0  0  0  0999 V2000
   -1.0542    0.6192    0.9729 C   0  0  0  0  0  0  0  0  0  0  0  0
   -0.8170   -0.0878   -0.3538 C   0  0  0  0  0  0  0  0  0  0  0  0
    0.5019   -0.8539   -0.3870 C   0  0  0  0  0  0  0  0  0  0  0  0
    1.7067    0.0654   -0.3768 C   0  0  0  0  0  0  0  0  0  0  0  0
    2.3157    0.3093    0.6616 O   0  0  0  0  0  0  0  0  0  0  0  0
    2.0812    0.7063   -1.9499 Cl  0  0  0  0  0  0  0  0  0  0  0  0
   -1.0280   -0.0901    1.8062 H   0  0  0  0  0  0  0  0  0  0  0  0
   -0.3011    1.3922    1.1535 H   0  0  0  0  0  0  0  0  0  0  0  0
   -2.0362    1.1030    0.9711 H   0  0  0  0  0  0  0  0  0  0  0  0
   -0.8563    0.6484   -1.1645 H   0  0  0  0  0  0  0  0  0  0  0  0
   -1.6377   -0.7948   -0.5232 H   0  0  0  0  0  0  0  0  0  0  0  0
    0.5779   -1.5315    0.4716 H   0  0  0  0  0  0  0  0  0  0  0  0
    0.5473   -1.4858   -1.2818 H   0  0  0  0  0  0  0  0  0  0  0  0
  1  2  1  0
  2  3  1  0
  3  4  1  0
  4  5  2  0
  4  6  1  0
  1  7  1  0
  1  8  1  0
  1  9  1  0
  2 10  1  0
  2 11  1  0
  3 12  1  0
  3 13  1  0
M  END
