
     RDKit          3D

 25 24  0  0  0  0  0  0  0  0999 V2000
   -3.5084    0.2297   -1.4463 C   0  0  0  0  0  0  0  0  0  0  0  0
   -2.8222   -0.7329   -0.4877 C   0  0  0  0  0  0  0  0  0  0  0  0
   -2.2084   -0.0242    0.7152 C   0  0  0  0  0  0  0  0  0  0  0  0
   -1.0419    0.8598    0.3355 C   0  0  0  0  0  0  0  0  0  0  0  0
   -1.0905    2.0781    0.4101 O   0  0  0  0  0  0  0  0  0  0  0  0
    0.0031    0.0804   -0.0448 O   0  0  0  0  0  0  0  0  0  0  0  0
    1.1022    0.7047   -0.5411 C   0  0  0  0  0  0  0  0  0  0  0  0
    1.2434    1.8870   -0.8141 O   0  0  0  0  0  0  0  0  0  0  0  0
    2.1953   -0.3162   -0.7633 C   0  0  0  0  0  0  0  0  0  0  0  0
    2.7607   -0.8628    0.5434 C   0  0  0  0  0  0  0  0  0  0  0  0
    3.5245    0.1886    1.3355 C   0  0  0  0  0  0  0  0  0  0  0  0
   -2.7941    0.9346   -1.8830 H   0  0  0  0  0  0  0  0  0  0  0  0
   -3.9762   -0.3247   -2.2661 H   0  0  0  0  0  0  0  0  0  0  0  0
   -4.2894    0.8020   -0.9356 H   0  0  0  0  0  0  0  0  0  0  0  0
   -3.5622   -1.4581   -0.1297 H   0  0  0  0  0  0  0  0  0  0  0  0
   -2.0573   -1.2979   -1.0328 H   0  0  0  0  0  0  0  0  0  0  0  0
   -1.8549   -0.7552    1.4520 H   0  0  0  0  0  0  0  0  0  0  0  0
   -2.9595    0.5913    1.2240 H   0  0  0  0  0  0  0  0  0  0  0  0
    1.7823   -1.1288   -1.3724 H   0  0  0  0  0  0  0  0  0  0  0  0
    2.9880    0.1483   -1.3614 H   0  0  0  0  0  0  0  0  0  0  0  0
    3.4408   -1.6913    0.3139 H   0  0  0  0  0  0  0  0  0  0  0  0
    1.9583   -1.2706    1.1689 H   0  0  0  0  0  0  0  0  0  0  0  0
    3.9537   -0.2580    2.2380 H   0  0  0  0  0  0  0  0  0  0  0  0
    4.3438    0.6080    0.7429 H   0  0  0  0  0  0  0  0  0  0  0  0
    2.8690    1.0081    1.6461 H   0  0  0  0  0  0  0  0  0  0  0  0
  1  2  1  0
  2  3  1  0
  3  4  1  0
  4  5  2  0
  4  6  1  0
  6  7  1  0
  7  8  2  0
  7  9  1  0
  9 10  1  0
 10 11  1  0
  1 12  1  0
  1 13  1  0
  1 14  1  0
  2 15  1  0
  2 16  1  0
  3 17  1  0
  3 18  1  0
  9 19  1  0
  9 20  1  0
 10 21  1  0
 10 22  1  0
 11 23  1  0
 11 24  1  0
 11 25  1  0
M  END
