
     RDKit          3D

  5  4  0  0  0  0  0  0  0  0999 V2000
    0.0099    0.0401    1.2081 H   0  0  0  0  0  0  0  0  0  0  0  0
    0.0009    0.0038    0.1157 C   0  0  0  0  0  0  0  0  0  0  0  0
    1.6453   -0.3454   -0.4438 Cl  0  0  0  0  0  0  0  0  0  0  0  0
   -1.1142   -1.2764   -0.3904 Cl  0  0  0  0  0  0  0  0  0  0  0  0
   -0.5419    1.5779   -0.4897 Cl  0  0  0  0  0  0  0  0  0  0  0  0
  1  2  1  0
  2  3  1  0
  2  4  1  0
  2  5  1  0
M  ISO  1   1   2
M  END
