
     RDKit          3D

 31 30  0  0  0  0  0  0  0  0999 V2000
   -4.5912    1.1297   -0.2026 C   0  0  0  0  0  0  0  0  0  0  0  0
   -3.9141   -0.1578   -0.6466 C   0  0  0  0  0  0  0  0  0  0  0  0
   -2.3885   -0.0538   -0.7242 C   0  0  0  0  0  0  0  0  0  0  0  0
   -1.7251    0.1373    0.6423 C   0  0  0  0  0  0  0  0  0  0  0  0
   -0.1980    0.2484    0.5650 C   0  0  0  0  0  0  0  0  0  0  0  0
    0.4822   -1.0432    0.1032 C   0  0  0  0  0  0  0  0  0  0  0  0
    2.0073   -1.0089    0.2516 C   0  0  0  0  0  0  0  0  0  0  0  0
    2.6814    0.0204   -0.6621 C   0  0  0  0  0  0  0  0  0  0  0  0
    4.2077   -0.0524   -0.5915 C   0  0  0  0  0  0  0  0  0  0  0  0
    4.7796    0.4817    0.7115 C   0  0  0  0  0  0  0  0  0  0  0  0
    4.1311    1.1718    1.4917 O   0  0  0  0  0  0  0  0  0  0  0  0
    6.4499    0.0301    0.9126 Cl  0  0  0  0  0  0  0  0  0  0  0  0
   -4.3455    1.3766    0.8341 H   0  0  0  0  0  0  0  0  0  0  0  0
   -5.6789    1.0228   -0.2674 H   0  0  0  0  0  0  0  0  0  0  0  0
   -4.2953    1.9694   -0.8392 H   0  0  0  0  0  0  0  0  0  0  0  0
   -4.1993   -0.9727    0.0289 H   0  0  0  0  0  0  0  0  0  0  0  0
   -4.2936   -0.4232   -1.6407 H   0  0  0  0  0  0  0  0  0  0  0  0
   -2.0168   -0.9751   -1.1865 H   0  0  0  0  0  0  0  0  0  0  0  0
   -2.1097    0.7712   -1.3908 H   0  0  0  0  0  0  0  0  0  0  0  0
   -2.0006   -0.6898    1.3077 H   0  0  0  0  0  0  0  0  0  0  0  0
   -2.1005    1.0560    1.1070 H   0  0  0  0  0  0  0  0  0  0  0  0
    0.0672    1.0758   -0.1028 H   0  0  0  0  0  0  0  0  0  0  0  0
    0.1750    0.5124    1.5624 H   0  0  0  0  0  0  0  0  0  0  0  0
    0.1004   -1.8825    0.6973 H   0  0  0  0  0  0  0  0  0  0  0  0
    0.2293   -1.2522   -0.9422 H   0  0  0  0  0  0  0  0  0  0  0  0
    2.3951   -2.0069    0.0122 H   0  0  0  0  0  0  0  0  0  0  0  0
    2.2657   -0.8150    1.2990 H   0  0  0  0  0  0  0  0  0  0  0  0
    2.3470    1.0325   -0.4091 H   0  0  0  0  0  0  0  0  0  0  0  0
    2.3736   -0.1692   -1.6977 H   0  0  0  0  0  0  0  0  0  0  0  0
    4.6304    0.5545   -1.4009 H   0  0  0  0  0  0  0  0  0  0  0  0
    4.5343   -1.0882   -0.7378 H   0  0  0  0  0  0  0  0  0  0  0  0
  1  2  1  0
  2  3  1  0
  3  4  1  0
  4  5  1  0
  5  6  1  0
  6  7  1  0
  7  8  1  0
  8  9  1  0
  9 10  1  0
 10 11  2  0
 10 12  1  0
  1 13  1  0
  1 14  1  0
  1 15  1  0
  2 16  1  0
  2 17  1  0
  3 18  1  0
  3 19  1  0
  4 20  1  0
  4 21  1  0
  5 22  1  0
  5 23  1  0
  6 24  1  0
  6 25  1  0
  7 26  1  0
  7 27  1  0
  8 28  1  0
  8 29  1  0
  9 30  1  0
  9 31  1  0
M  END
