
     RDKit          3D

  3  2  0  0  0  0  0  0  0  0999 V2000
   -0.7642   -0.1962    0.0000 H   0  0  0  0  0  0  0  0  0  0  0  0
    0.0014    0.3978    0.0000 O   0  0  0  0  0  0  0  0  0  0  0  0
    0.7628   -0.2016    0.0000 H   0  0  0  0  0  0  0  0  0  0  0  0
  1  2  1  0
  2  3  1  0
M  ISO  2   1   2   3   2
M  END
