
     RDKit          3D

 15 14  0  0  0  0  0  0  0  0999 V2000
   -2.3302   -0.6153    0.3014 C   0  0  0  0  0  0  0  0  0  0  0  0
   -1.1800    0.3716    0.3206 C   0  0  0  0  0  0  0  0  0  0  0  0
    0.0125   -0.3186   -0.0448 O   0  0  0  0  0  0  0  0  0  0  0  0
    1.1439    0.5486   -0.0491 C   0  0  0  0  0  0  0  0  0  0  0  0
    2.3644   -0.2578   -0.4456 C   0  0  0  0  0  0  0  0  0  0  0  0
   -2.4412   -1.0587   -0.6937 H   0  0  0  0  0  0  0  0  0  0  0  0
   -2.1430   -1.4392    0.9980 H   0  0  0  0  0  0  0  0  0  0  0  0
   -3.2687   -0.1263    0.5768 H   0  0  0  0  0  0  0  0  0  0  0  0
   -1.3721    1.1813   -0.3919 H   0  0  0  0  0  0  0  0  0  0  0  0
   -1.0695    0.7951    1.3250 H   0  0  0  0  0  0  0  0  0  0  0  0
    0.9849    1.3608   -0.7670 H   0  0  0  0  0  0  0  0  0  0  0  0
    1.2875    0.9746    0.9499 H   0  0  0  0  0  0  0  0  0  0  0  0
    2.2271   -0.7032   -1.4366 H   0  0  0  0  0  0  0  0  0  0  0  0
    3.2591    0.3708   -0.4619 H   0  0  0  0  0  0  0  0  0  0  0  0
    2.5253   -1.0837    0.2552 H   0  0  0  0  0  0  0  0  0  0  0  0
  1  2  1  0
  2  3  1  0
  3  4  1  0
  4  5  1  0
  1  6  1  0
  1  7  1  0
  1  8  1  0
  2  9  1  0
  2 10  1  0
  4 11  1  0
  4 12  1  0
  5 13  1  0
  5 14  1  0
  5 15  1  0
M  END
