
     RDKit          3D

 15 14  0  0  0  0  0  0  0  0999 V2000
   -2.6962   -0.4602   -0.1663 C   0  0  0  0  0  0  0  0  0  0  0  0
   -1.8508    0.1691    0.9096 C   0  0  0  0  0  0  0  0  0  0  0  0
    0.0096    0.4471    0.3743 Zn  0  0  0  0  0  2  0  0  0  0  0  0
    1.8693    0.8311   -0.1126 C   0  0  0  0  0  0  0  0  0  0  0  0
    2.6578   -0.4279   -0.4371 C   0  0  0  0  0  0  0  0  0  0  0  0
   -2.4030   -0.1525   -1.1921 H   0  0  0  0  0  0  0  0  0  0  0  0
   -2.5122   -1.5631   -0.1166 H   0  0  0  0  0  0  0  0  0  0  0  0
   -3.7767   -0.2185   -0.0402 H   0  0  0  0  0  0  0  0  0  0  0  0
   -2.3695    1.1272    1.1803 H   0  0  0  0  0  0  0  0  0  0  0  0
   -1.9497   -0.4666    1.8123 H   0  0  0  0  0  0  0  0  0  0  0  0
    1.9306    1.5336   -0.9814 H   0  0  0  0  0  0  0  0  0  0  0  0
    2.4003    1.2787    0.7665 H   0  0  0  0  0  0  0  0  0  0  0  0
    2.0852   -1.1521   -1.0279 H   0  0  0  0  0  0  0  0  0  0  0  0
    3.5464   -0.0578   -1.0203 H   0  0  0  0  0  0  0  0  0  0  0  0
    3.0589   -0.8881    0.4875 H   0  0  0  0  0  0  0  0  0  0  0  0
  1  2  1  0
  2  3  1  0
  3  4  1  0
  4  5  1  0
  1  6  1  0
  1  7  1  0
  1  8  1  0
  2  9  1  0
  2 10  1  0
  4 11  1  0
  4 12  1  0
  5 13  1  0
  5 14  1  0
  5 15  1  0
M  END
