
     RDKit          3D

 10  9  0  0  0  0  0  0  0  0999 V2000
    1.3393    0.0181   -0.2055 C   0  0  0  0  0  0  0  0  0  0  0  0
   -0.2751    0.5117   -0.8558 S   0  0  0  0  0  0  0  0  0  0  0  0
   -1.2060    0.1043    0.6410 C   0  0  0  0  0  0  0  0  0  0  0  0
   -0.6597   -0.4828   -1.9109 O   0  0  0  0  0  0  0  0  0  0  0  0
    1.3154   -1.0321    0.0951 H   0  0  0  0  0  0  0  0  0  0  0  0
    2.0869    0.1532   -0.9907 H   0  0  0  0  0  0  0  0  0  0  0  0
    1.5958    0.6475    0.6497 H   0  0  0  0  0  0  0  0  0  0  0  0
   -1.0709   -0.9513    0.8887 H   0  0  0  0  0  0  0  0  0  0  0  0
   -2.2648    0.3006    0.4566 H   0  0  0  0  0  0  0  0  0  0  0  0
   -0.8608    0.7307    1.4668 H   0  0  0  0  0  0  0  0  0  0  0  0
  1  2  1  0
  2  3  1  0
  2  4  2  0
  1  5  1  0
  1  6  1  0
  1  7  1  0
  3  8  1  0
  3  9  1  0
  3 10  1  0
M  END
