
     RDKit          3D

 10  9  0  0  0  0  0  0  0  0999 V2000
   -1.2186    1.0045    0.5535 H   0  0  0  0  0  0  0  0  0  0  0  0
   -1.3437    0.1582   -0.1261 C   0  0  0  0  0  0  0  0  0  0  0  0
   -2.3007   -0.3292    0.0746 H   0  0  0  0  0  0  0  0  0  0  0  0
   -1.3242    0.5030   -1.1625 H   0  0  0  0  0  0  0  0  0  0  0  0
   -0.0182   -1.0451    0.1349 S   0  0  0  0  0  0  0  0  0  0  0  0
    0.0241   -1.3585    1.6012 O   0  0  0  0  0  0  0  0  0  0  0  0
    1.3379    0.0998   -0.2161 C   0  0  0  0  0  0  0  0  0  0  0  0
    1.2640    0.4466   -1.2494 H   0  0  0  0  0  0  0  0  0  0  0  0
    1.2955    0.9498    0.4691 H   0  0  0  0  0  0  0  0  0  0  0  0
    2.2841   -0.4290   -0.0792 H   0  0  0  0  0  0  0  0  0  0  0  0
  1  2  1  0
  2  3  1  0
  2  4  1  0
  2  5  1  0
  5  6  2  0
  5  7  1  0
  7  8  1  0
  7  9  1  0
  7 10  1  0
M  ISO  6   1   2   3   2   4   2   8   2   9   2  10   2
M  END
