
     RDKit          3D

 12 11  0  0  0  0  0  0  0  0999 V2000
    0.3914    1.3117    0.1168 C   0  0  0  0  0  0  0  0  0  0  0  0
    0.1144   -0.1071    0.0039 N   0  0  0  0  0  0  0  0  0  0  0  0
   -1.2658   -0.5190   -0.1486 C   0  0  0  0  0  0  0  0  0  0  0  0
    1.1413   -1.0265    0.0420 C   0  0  0  0  0  0  0  0  0  0  0  0
    2.3319   -0.7713    0.1674 O   0  0  0  0  0  0  0  0  0  0  0  0
    1.4611    1.5077    0.2274 H   0  0  0  0  0  0  0  0  0  0  0  0
   -0.1353    1.7049    0.9911 H   0  0  0  0  0  0  0  0  0  0  0  0
    0.0282    1.8142   -0.7844 H   0  0  0  0  0  0  0  0  0  0  0  0
   -1.6721   -0.0658   -1.0573 H   0  0  0  0  0  0  0  0  0  0  0  0
   -1.8358   -0.1751    0.7192 H   0  0  0  0  0  0  0  0  0  0  0  0
   -1.3479   -1.6068   -0.2231 H   0  0  0  0  0  0  0  0  0  0  0  0
    0.7886   -2.0667   -0.0545 H   0  0  0  0  0  0  0  0  0  0  0  0
  1  2  1  0
  2  3  1  0
  2  4  1  0
  4  5  2  0
  1  6  1  0
  1  7  1  0
  1  8  1  0
  3  9  1  0
  3 10  1  0
  3 11  1  0
  4 12  1  0
M  END
