
     RDKit          3D

  5  4  0  0  0  0  0  0  0  0999 V2000
   -0.0000    0.0000    0.0000 Ge  0  0  0  0  0  4  0  0  0  0  0  0
    0.6025    0.2446    1.4071 H   0  0  0  0  0  0  0  0  0  0  0  0
   -0.9813   -1.1985    0.0593 H   0  0  0  0  0  0  0  0  0  0  0  0
    1.1397   -0.3145   -1.0025 H   0  0  0  0  0  0  0  0  0  0  0  0
   -0.7609    1.2684   -0.4639 H   0  0  0  0  0  0  0  0  0  0  0  0
  1  2  1  0
  1  3  1  0
  1  4  1  0
  1  5  1  0
M  END
