
     RDKit          3D

  3  2  0  0  0  0  0  0  0  0999 V2000
   -0.0070    0.7205    0.0000 Se  0  0  0  0  0  2  0  0  0  0  0  0
   -1.0886   -0.3708    0.0000 H   0  0  0  0  0  0  0  0  0  0  0  0
    1.0955   -0.3497    0.0000 H   0  0  0  0  0  0  0  0  0  0  0  0
  1  2  1  0
  1  3  1  0
M  END
