
     RDKit          3D

  9  9  0  0  0  0  0  0  0  0999 V2000
    1.1157    0.4903   -0.0716 C   0  0  0  0  0  0  0  0  0  0  0  0
    0.1739    1.3983   -0.1845 N   0  0  0  0  0  0  0  0  0  0  0  0
   -1.0071    0.7091   -0.0864 C   0  0  0  0  0  0  0  0  0  0  0  0
   -0.7732   -0.6343    0.0882 C   0  0  0  0  0  0  0  0  0  0  0  0
    0.5886   -0.7587    0.0956 N   0  0  0  0  0  0  0  0  0  0  0  0
    2.1814    0.6739   -0.1027 H   0  0  0  0  0  0  0  0  0  0  0  0
   -1.9610    1.2169   -0.1467 H   0  0  0  0  0  0  0  0  0  0  0  0
   -1.4338   -1.4813    0.2036 H   0  0  0  0  0  0  0  0  0  0  0  0
    1.1155   -1.6142    0.2044 H   0  0  0  0  0  0  0  0  0  0  0  0
  1  2  2  0
  2  3  1  0
  3  4  2  0
  4  5  1  0
  5  1  1  0
  1  6  1  0
  3  7  1  0
  4  8  1  0
  5  9  1  0
M  END
