
     RDKit          3D

 19 18  0  0  0  0  0  0  0  0999 V2000
    2.8021   -0.6965    0.0299 C   0  0  0  0  0  0  0  0  0  0  0  0
    1.3458   -0.9205   -0.2860 C   0  0  0  0  0  0  0  0  0  0  0  0
    0.9050   -2.0547   -0.4648 O   0  0  0  0  0  0  0  0  0  0  0  0
    0.4880    0.3295   -0.4085 C   0  0  0  0  0  0  0  0  0  0  0  0
   -1.0205    0.0445   -0.4548 C   0  0  0  0  0  0  0  0  0  0  0  0
   -1.7758    1.2926   -0.9162 C   0  0  0  0  0  0  0  0  0  0  0  0
   -1.5472   -0.4014    0.9117 C   0  0  0  0  0  0  0  0  0  0  0  0
    3.3171   -1.6588    0.0985 H   0  0  0  0  0  0  0  0  0  0  0  0
    3.2619   -0.1040   -0.7648 H   0  0  0  0  0  0  0  0  0  0  0  0
    2.8941   -0.1797    0.9883 H   0  0  0  0  0  0  0  0  0  0  0  0
    0.8028    0.8326   -1.3306 H   0  0  0  0  0  0  0  0  0  0  0  0
    0.7192    0.9918    0.4340 H   0  0  0  0  0  0  0  0  0  0  0  0
   -1.2202   -0.7561   -1.1779 H   0  0  0  0  0  0  0  0  0  0  0  0
   -2.8526    1.0993   -0.9672 H   0  0  0  0  0  0  0  0  0  0  0  0
   -1.4454    1.6005   -1.9139 H   0  0  0  0  0  0  0  0  0  0  0  0
   -1.6138    2.1318   -0.2311 H   0  0  0  0  0  0  0  0  0  0  0  0
   -1.3832    0.3703    1.6718 H   0  0  0  0  0  0  0  0  0  0  0  0
   -1.0547   -1.3181    1.2502 H   0  0  0  0  0  0  0  0  0  0  0  0
   -2.6227   -0.6032    0.8641 H   0  0  0  0  0  0  0  0  0  0  0  0
  1  2  1  0
  2  3  2  0
  2  4  1  0
  4  5  1  0
  5  6  1  0
  5  7  1  0
  1  8  1  0
  1  9  1  0
  1 10  1  0
  4 11  1  0
  4 12  1  0
  5 13  1  0
  6 14  1  0
  6 15  1  0
  6 16  1  0
  7 17  1  0
  7 18  1  0
  7 19  1  0
M  END
