
     RDKit          3D

 14 14  0  0  0  0  0  0  0  0999 V2000
   -2.1399    0.2292   -0.1859 C   0  0  0  0  0  0  0  0  0  0  0  0
   -0.9611    0.4158    0.7197 C   0  0  0  0  0  0  0  0  0  0  0  0
   -1.0153    0.8665    1.8569 O   0  0  0  0  0  0  0  0  0  0  0  0
    0.2760    0.0338    0.1865 N   0  0  0  0  0  0  0  0  0  0  0  0
    1.4960    0.1128    0.8309 C   0  0  0  0  0  0  0  0  0  0  0  0
    2.4294   -0.3640   -0.0554 C   0  0  0  0  0  0  0  0  0  0  0  0
    1.8332   -0.7366   -1.2276 N   0  0  0  0  0  0  0  0  0  0  0  0
    0.5533   -0.4898   -1.0572 C   0  0  0  0  0  0  0  0  0  0  0  0
   -2.2646   -0.8266   -0.4412 H   0  0  0  0  0  0  0  0  0  0  0  0
   -2.0303    0.8359   -1.0888 H   0  0  0  0  0  0  0  0  0  0  0  0
   -3.0434    0.5598    0.3358 H   0  0  0  0  0  0  0  0  0  0  0  0
    1.5763    0.4945    1.8398 H   0  0  0  0  0  0  0  0  0  0  0  0
    3.4983   -0.4579    0.0902 H   0  0  0  0  0  0  0  0  0  0  0  0
   -0.2078   -0.6734   -1.8038 H   0  0  0  0  0  0  0  0  0  0  0  0
  1  2  1  0
  2  3  2  0
  2  4  1  0
  4  5  1  0
  5  6  2  0
  6  7  1  0
  7  8  2  0
  8  4  1  0
  1  9  1  0
  1 10  1  0
  1 11  1  0
  5 12  1  0
  6 13  1  0
  8 14  1  0
M  END
