
     RDKit          3D

 21 22  0  0  0  0  0  0  0  0999 V2000
   -0.5554   -2.3375   -0.5562 O   0  0  0  0  0  0  0  0  0  0  0  0
   -0.5598   -1.1477   -0.2465 C   0  0  0  0  0  0  0  0  0  0  0  0
   -1.8123   -0.5456   -0.0454 N   0  0  0  0  0  0  0  0  0  0  0  0
   -2.1143    0.7888    0.1375 C   0  0  0  0  0  0  0  0  0  0  0  0
   -3.4797    0.8515    0.2844 C   0  0  0  0  0  0  0  0  0  0  0  0
   -4.0356   -0.3917    0.1840 N   0  0  0  0  0  0  0  0  0  0  0  0
   -3.0236   -1.2032   -0.0297 C   0  0  0  0  0  0  0  0  0  0  0  0
    0.7405   -0.4480   -0.1287 C   0  0  0  0  0  0  0  0  0  0  0  0
    1.7139   -0.6756   -1.1084 C   0  0  0  0  0  0  0  0  0  0  0  0
    2.9533   -0.0414   -1.0177 C   0  0  0  0  0  0  0  0  0  0  0  0
    3.2257    0.8061    0.0563 C   0  0  0  0  0  0  0  0  0  0  0  0
    2.2653    1.0141    1.0471 C   0  0  0  0  0  0  0  0  0  0  0  0
    1.0232    0.3826    0.9615 C   0  0  0  0  0  0  0  0  0  0  0  0
   -1.3644    1.5657    0.1290 H   0  0  0  0  0  0  0  0  0  0  0  0
   -4.0918    1.7299    0.4466 H   0  0  0  0  0  0  0  0  0  0  0  0
   -3.0916   -2.2746   -0.1728 H   0  0  0  0  0  0  0  0  0  0  0  0
    1.5111   -1.3470   -1.9406 H   0  0  0  0  0  0  0  0  0  0  0  0
    3.7093   -0.2141   -1.7801 H   0  0  0  0  0  0  0  0  0  0  0  0
    4.1945    1.2956    0.1279 H   0  0  0  0  0  0  0  0  0  0  0  0
    2.4912    1.6606    1.8922 H   0  0  0  0  0  0  0  0  0  0  0  0
    0.3003    0.5312    1.7597 H   0  0  0  0  0  0  0  0  0  0  0  0
  1  2  2  0
  2  3  1  0
  3  4  1  0
  4  5  2  0
  5  6  1  0
  6  7  2  0
  2  8  1  0
  8  9  2  0
  9 10  1  0
 10 11  2  0
 11 12  1  0
 12 13  2  0
  7  3  1  0
 13  8  1  0
  4 14  1  0
  5 15  1  0
  7 16  1  0
  9 17  1  0
 10 18  1  0
 11 19  1  0
 12 20  1  0
 13 21  1  0
M  END
