
     RDKit          3D

 20 20  0  0  0  0  0  0  0  0999 V2000
   -3.2621   -0.0732   -0.4276 C   0  0  0  0  0  0  0  0  0  0  0  0
   -2.1338    0.0845    0.5786 C   0  0  0  0  0  0  0  0  0  0  0  0
   -0.7648   -0.0197   -0.0930 C   0  0  0  0  0  0  0  0  0  0  0  0
    0.3561    0.1371    0.9076 C   0  0  0  0  0  0  0  0  0  0  0  0
    0.2271    0.3248    2.1102 O   0  0  0  0  0  0  0  0  0  0  0  0
    1.6465    0.0534    0.3677 N   0  0  0  0  0  0  0  0  0  0  0  0
    2.0414   -0.1506   -0.9401 C   0  0  0  0  0  0  0  0  0  0  0  0
    3.4162   -0.1477   -0.9262 C   0  0  0  0  0  0  0  0  0  0  0  0
    3.8873    0.0502    0.3398 N   0  0  0  0  0  0  0  0  0  0  0  0
    2.8150    0.1669    1.0907 C   0  0  0  0  0  0  0  0  0  0  0  0
   -3.2141    0.7050   -1.1960 H   0  0  0  0  0  0  0  0  0  0  0  0
   -3.2132   -1.0485   -0.9223 H   0  0  0  0  0  0  0  0  0  0  0  0
   -4.2315    0.0047    0.0745 H   0  0  0  0  0  0  0  0  0  0  0  0
   -2.2307    1.0540    1.0819 H   0  0  0  0  0  0  0  0  0  0  0  0
   -2.2299   -0.6855    1.3535 H   0  0  0  0  0  0  0  0  0  0  0  0
   -0.6755    0.7661   -0.8519 H   0  0  0  0  0  0  0  0  0  0  0  0
   -0.6747   -0.9994   -0.5762 H   0  0  0  0  0  0  0  0  0  0  0  0
    1.3415   -0.2778   -1.7527 H   0  0  0  0  0  0  0  0  0  0  0  0
    4.0906   -0.2781   -1.7635 H   0  0  0  0  0  0  0  0  0  0  0  0
    2.8086    0.3340    2.1610 H   0  0  0  0  0  0  0  0  0  0  0  0
  1  2  1  0
  2  3  1  0
  3  4  1  0
  4  5  2  0
  4  6  1  0
  6  7  1  0
  7  8  2  0
  8  9  1  0
  9 10  2  0
 10  6  1  0
  1 11  1  0
  1 12  1  0
  1 13  1  0
  2 14  1  0
  2 15  1  0
  3 16  1  0
  3 17  1  0
  7 18  1  0
  8 19  1  0
 10 20  1  0
M  END
