
     RDKit          3D

 38 38  0  0  0  0  0  0  0  0999 V2000
    5.5242   -1.3920    0.4639 C   0  0  0  0  0  0  0  0  0  0  0  0
    4.4185   -1.2090   -0.5643 C   0  0  0  0  0  0  0  0  0  0  0  0
    3.4451   -0.0772   -0.2241 C   0  0  0  0  0  0  0  0  0  0  0  0
    2.6030   -0.3583    1.0228 C   0  0  0  0  0  0  0  0  0  0  0  0
    1.6376    0.7788    1.3754 C   0  0  0  0  0  0  0  0  0  0  0  0
    0.5949    1.1302    0.3098 C   0  0  0  0  0  0  0  0  0  0  0  0
   -0.3143   -0.0427   -0.0643 C   0  0  0  0  0  0  0  0  0  0  0  0
   -1.4125    0.3981   -1.0382 C   0  0  0  0  0  0  0  0  0  0  0  0
   -2.2972   -0.7632   -1.4896 C   0  0  0  0  0  0  0  0  0  0  0  0
   -3.1437   -1.3240   -0.3744 C   0  0  0  0  0  0  0  0  0  0  0  0
   -2.8566   -2.3219    0.2764 O   0  0  0  0  0  0  0  0  0  0  0  0
   -4.3237   -0.6307   -0.0741 N   0  0  0  0  0  0  0  0  0  0  0  0
   -4.8615    0.4997   -0.6572 C   0  0  0  0  0  0  0  0  0  0  0  0
   -6.0312    0.7569    0.0182 C   0  0  0  0  0  0  0  0  0  0  0  0
   -6.2397   -0.1714    0.9964 N   0  0  0  0  0  0  0  0  0  0  0  0
   -5.2110   -0.9857    0.9206 C   0  0  0  0  0  0  0  0  0  0  0  0
    6.0661   -0.4556    0.6296 H   0  0  0  0  0  0  0  0  0  0  0  0
    5.1284   -1.7382    1.4230 H   0  0  0  0  0  0  0  0  0  0  0  0
    6.2418   -2.1409    0.1135 H   0  0  0  0  0  0  0  0  0  0  0  0
    4.8809   -0.9875   -1.5337 H   0  0  0  0  0  0  0  0  0  0  0  0
    3.8700   -2.1506   -0.6830 H   0  0  0  0  0  0  0  0  0  0  0  0
    4.0004    0.8593   -0.0936 H   0  0  0  0  0  0  0  0  0  0  0  0
    2.7854    0.0617   -1.0880 H   0  0  0  0  0  0  0  0  0  0  0  0
    3.2630   -0.5062    1.8853 H   0  0  0  0  0  0  0  0  0  0  0  0
    2.0495   -1.2955    0.8951 H   0  0  0  0  0  0  0  0  0  0  0  0
    2.2203    1.6811    1.5999 H   0  0  0  0  0  0  0  0  0  0  0  0
    1.1163    0.5120    2.3034 H   0  0  0  0  0  0  0  0  0  0  0  0
   -0.0212    1.9510    0.6984 H   0  0  0  0  0  0  0  0  0  0  0  0
    1.0899    1.5187   -0.5875 H   0  0  0  0  0  0  0  0  0  0  0  0
   -0.7653   -0.4552    0.8454 H   0  0  0  0  0  0  0  0  0  0  0  0
    0.2759   -0.8407   -0.5284 H   0  0  0  0  0  0  0  0  0  0  0  0
   -0.9448    0.8409   -1.9261 H   0  0  0  0  0  0  0  0  0  0  0  0
   -2.0170    1.1835   -0.5708 H   0  0  0  0  0  0  0  0  0  0  0  0
   -1.6719   -1.5800   -1.8715 H   0  0  0  0  0  0  0  0  0  0  0  0
   -2.9319   -0.4668   -2.3313 H   0  0  0  0  0  0  0  0  0  0  0  0
   -4.3916    1.0214   -1.4774 H   0  0  0  0  0  0  0  0  0  0  0  0
   -6.7335    1.5638   -0.1509 H   0  0  0  0  0  0  0  0  0  0  0  0
   -5.0427   -1.8501    1.5515 H   0  0  0  0  0  0  0  0  0  0  0  0
  1  2  1  0
  2  3  1  0
  3  4  1  0
  4  5  1  0
  5  6  1  0
  6  7  1  0
  7  8  1  0
  8  9  1  0
  9 10  1  0
 10 11  2  0
 10 12  1  0
 12 13  1  0
 13 14  2  0
 14 15  1  0
 15 16  2  0
 16 12  1  0
  1 17  1  0
  1 18  1  0
  1 19  1  0
  2 20  1  0
  2 21  1  0
  3 22  1  0
  3 23  1  0
  4 24  1  0
  4 25  1  0
  5 26  1  0
  5 27  1  0
  6 28  1  0
  6 29  1  0
  7 30  1  0
  7 31  1  0
  8 32  1  0
  8 33  1  0
  9 34  1  0
  9 35  1  0
 13 36  1  0
 14 37  1  0
 16 38  1  0
M  END
