
     RDKit          3D

 35 39  0  0  0  0  0  0  0  0999 V2000
    3.1470   -1.0708   -2.2707 O   0  0  0  0  0  0  0  0  0  0  0  0
    2.7493   -0.6304   -1.1955 C   0  0  0  0  0  0  0  0  0  0  0  0
    3.5948    0.2410   -0.4935 N   0  0  0  0  0  0  0  0  0  0  0  0
    3.4099    0.7900    0.7588 C   0  0  0  0  0  0  0  0  0  0  0  0
    4.5155    1.5723    0.9932 C   0  0  0  0  0  0  0  0  0  0  0  0
    5.3796    1.5202   -0.0642 N   0  0  0  0  0  0  0  0  0  0  0  0
    4.8113    0.7131   -0.9326 C   0  0  0  0  0  0  0  0  0  0  0  0
    1.4333   -1.0700   -0.6893 C   0  0  0  0  0  0  0  0  0  0  0  0
    1.3329   -2.4126   -0.3100 C   0  0  0  0  0  0  0  0  0  0  0  0
    0.1403   -2.8915    0.2225 C   0  0  0  0  0  0  0  0  0  0  0  0
   -0.9619   -2.0411    0.3747 C   0  0  0  0  0  0  0  0  0  0  0  0
   -2.1586   -2.5197    0.9220 C   0  0  0  0  0  0  0  0  0  0  0  0
   -3.2628   -1.6795    1.0714 C   0  0  0  0  0  0  0  0  0  0  0  0
   -3.2002   -0.3398    0.6719 C   0  0  0  0  0  0  0  0  0  0  0  0
   -4.3065    0.5105    0.8137 C   0  0  0  0  0  0  0  0  0  0  0  0
   -4.2356    1.8417    0.4076 C   0  0  0  0  0  0  0  0  0  0  0  0
   -3.0580    2.3392   -0.1469 C   0  0  0  0  0  0  0  0  0  0  0  0
   -1.9355    1.5123   -0.2998 C   0  0  0  0  0  0  0  0  0  0  0  0
   -0.7516    1.9974   -0.8613 C   0  0  0  0  0  0  0  0  0  0  0  0
    0.3612    1.1658   -1.0066 C   0  0  0  0  0  0  0  0  0  0  0  0
    0.3348   -0.1824   -0.5852 C   0  0  0  0  0  0  0  0  0  0  0  0
   -0.8702   -0.6853   -0.0333 C   0  0  0  0  0  0  0  0  0  0  0  0
   -2.0004    0.1623    0.1135 C   0  0  0  0  0  0  0  0  0  0  0  0
    2.5373    0.5854    1.3628 H   0  0  0  0  0  0  0  0  0  0  0  0
    4.7349    2.1679    1.8706 H   0  0  0  0  0  0  0  0  0  0  0  0
    5.2190    0.4308   -1.8955 H   0  0  0  0  0  0  0  0  0  0  0  0
    2.1806   -3.0851   -0.4245 H   0  0  0  0  0  0  0  0  0  0  0  0
    0.0778   -3.9370    0.5187 H   0  0  0  0  0  0  0  0  0  0  0  0
   -2.2463   -3.5571    1.2389 H   0  0  0  0  0  0  0  0  0  0  0  0
   -4.1767   -2.0848    1.5006 H   0  0  0  0  0  0  0  0  0  0  0  0
   -5.2359    0.1404    1.2412 H   0  0  0  0  0  0  0  0  0  0  0  0
   -5.0998    2.4912    0.5208 H   0  0  0  0  0  0  0  0  0  0  0  0
   -3.0240    3.3802   -0.4612 H   0  0  0  0  0  0  0  0  0  0  0  0
   -0.6836    3.0300   -1.1985 H   0  0  0  0  0  0  0  0  0  0  0  0
    1.2479    1.5954   -1.4691 H   0  0  0  0  0  0  0  0  0  0  0  0
  1  2  2  0
  2  3  1  0
  3  4  1  0
  4  5  2  0
  5  6  1  0
  6  7  2  0
  2  8  1  0
  8  9  1  0
  9 10  2  0
 10 11  1  0
 11 12  2  0
 12 13  1  0
 13 14  2  0
 14 15  1  0
 15 16  2  0
 16 17  1  0
 17 18  2  0
 18 19  1  0
 19 20  2  0
 20 21  1  0
 21 22  1  0
 22 23  2  0
  7  3  1  0
 21  8  2  0
 22 11  1  0
 23 14  1  0
 23 18  1  0
  4 24  1  0
  5 25  1  0
  7 26  1  0
  9 27  1  0
 10 28  1  0
 12 29  1  0
 13 30  1  0
 15 31  1  0
 16 32  1  0
 17 33  1  0
 19 34  1  0
 20 35  1  0
M  END
