
     RDKit          3D

 29 28  0  0  0  0  0  0  0  0999 V2000
    3.5237    1.1128    0.3631 C   0  0  0  0  0  0  0  0  0  0  0  0
    3.2647   -0.3026    0.8547 C   0  0  0  0  0  0  0  0  0  0  0  0
    2.6380   -1.2133   -0.2039 C   0  0  0  0  0  0  0  0  0  0  0  0
    1.2855   -0.7561   -0.7588 C   0  0  0  0  0  0  0  0  0  0  0  0
    0.1962   -0.6420    0.3095 C   0  0  0  0  0  0  0  0  0  0  0  0
   -1.1584   -0.2957   -0.3150 C   0  0  0  0  0  0  0  0  0  0  0  0
   -2.2463   -0.1739    0.7545 C   0  0  0  0  0  0  0  0  0  0  0  0
   -3.6417    0.0678    0.1751 C   0  0  0  0  0  0  0  0  0  0  0  0
   -3.7823    1.4070   -0.5319 C   0  0  0  0  0  0  0  0  0  0  0  0
    4.0632    1.6826    1.1265 H   0  0  0  0  0  0  0  0  0  0  0  0
    4.1307    1.1078   -0.5477 H   0  0  0  0  0  0  0  0  0  0  0  0
    2.5893    1.6421    0.1545 H   0  0  0  0  0  0  0  0  0  0  0  0
    4.2199   -0.7434    1.1649 H   0  0  0  0  0  0  0  0  0  0  0  0
    2.6360   -0.2698    1.7511 H   0  0  0  0  0  0  0  0  0  0  0  0
    3.3384   -1.3151   -1.0423 H   0  0  0  0  0  0  0  0  0  0  0  0
    2.5249   -2.2168    0.2251 H   0  0  0  0  0  0  0  0  0  0  0  0
    1.3974    0.2015   -1.2803 H   0  0  0  0  0  0  0  0  0  0  0  0
    0.9682   -1.4831   -1.5171 H   0  0  0  0  0  0  0  0  0  0  0  0
    0.4626    0.1333    1.0365 H   0  0  0  0  0  0  0  0  0  0  0  0
    0.1174   -1.5893    0.8563 H   0  0  0  0  0  0  0  0  0  0  0  0
   -1.0674    0.6463   -0.8674 H   0  0  0  0  0  0  0  0  0  0  0  0
   -1.4389   -1.0717   -1.0374 H   0  0  0  0  0  0  0  0  0  0  0  0
   -2.2757   -1.0994    1.3429 H   0  0  0  0  0  0  0  0  0  0  0  0
   -1.9923    0.6347    1.4506 H   0  0  0  0  0  0  0  0  0  0  0  0
   -3.9032   -0.7401   -0.5182 H   0  0  0  0  0  0  0  0  0  0  0  0
   -4.3690    0.0293    0.9949 H   0  0  0  0  0  0  0  0  0  0  0  0
   -4.8221    1.5629   -0.8369 H   0  0  0  0  0  0  0  0  0  0  0  0
   -3.1635    1.4523   -1.4327 H   0  0  0  0  0  0  0  0  0  0  0  0
   -3.4957    2.2319    0.1279 H   0  0  0  0  0  0  0  0  0  0  0  0
  1  2  1  0
  2  3  1  0
  3  4  1  0
  4  5  1  0
  5  6  1  0
  6  7  1  0
  7  8  1  0
  8  9  1  0
  1 10  1  0
  1 11  1  0
  1 12  1  0
  2 13  1  0
  2 14  1  0
  3 15  1  0
  3 16  1  0
  4 17  1  0
  4 18  1  0
  5 19  1  0
  5 20  1  0
  6 21  1  0
  6 22  1  0
  7 23  1  0
  7 24  1  0
  8 25  1  0
  8 26  1  0
  9 27  1  0
  9 28  1  0
  9 29  1  0
M  END
