
     RDKit          3D

 26 25  0  0  0  0  0  0  0  0999 V2000
   -3.9744   -0.0481    0.8344 C   0  0  0  0  0  0  0  0  0  0  0  0
   -2.6138    0.5975    0.6259 C   0  0  0  0  0  0  0  0  0  0  0  0
   -1.6474   -0.3497   -0.0848 C   0  0  0  0  0  0  0  0  0  0  0  0
   -0.2794    0.3040   -0.2929 C   0  0  0  0  0  0  0  0  0  0  0  0
    0.6873   -0.6478   -1.0004 C   0  0  0  0  0  0  0  0  0  0  0  0
    2.0367   -0.0062   -1.3380 C   0  0  0  0  0  0  0  0  0  0  0  0
    2.8457    0.5080   -0.1447 C   0  0  0  0  0  0  0  0  0  0  0  0
    3.1910   -0.5731    0.8673 C   0  0  0  0  0  0  0  0  0  0  0  0
   -4.6495    0.6465    1.3440 H   0  0  0  0  0  0  0  0  0  0  0  0
   -3.8903   -0.9513    1.4471 H   0  0  0  0  0  0  0  0  0  0  0  0
   -4.4290   -0.3230   -0.1228 H   0  0  0  0  0  0  0  0  0  0  0  0
   -2.2016    0.8894    1.5988 H   0  0  0  0  0  0  0  0  0  0  0  0
   -2.7371    1.5142    0.0375 H   0  0  0  0  0  0  0  0  0  0  0  0
   -2.0670   -0.6419   -1.0551 H   0  0  0  0  0  0  0  0  0  0  0  0
   -1.5301   -1.2664    0.5060 H   0  0  0  0  0  0  0  0  0  0  0  0
    0.1282    0.5976    0.6809 H   0  0  0  0  0  0  0  0  0  0  0  0
   -0.3960    1.2184   -0.8870 H   0  0  0  0  0  0  0  0  0  0  0  0
    0.2313   -0.9887   -1.9385 H   0  0  0  0  0  0  0  0  0  0  0  0
    0.8398   -1.5452   -0.3898 H   0  0  0  0  0  0  0  0  0  0  0  0
    2.6410   -0.7411   -1.8846 H   0  0  0  0  0  0  0  0  0  0  0  0
    1.8697    0.8291   -2.0294 H   0  0  0  0  0  0  0  0  0  0  0  0
    3.7795    0.9407   -0.5239 H   0  0  0  0  0  0  0  0  0  0  0  0
    2.3113    1.3221    0.3569 H   0  0  0  0  0  0  0  0  0  0  0  0
    3.7052   -1.4115    0.3869 H   0  0  0  0  0  0  0  0  0  0  0  0
    2.2959   -0.9552    1.3669 H   0  0  0  0  0  0  0  0  0  0  0  0
    3.8528   -0.1673    1.6391 H   0  0  0  0  0  0  0  0  0  0  0  0
  1  2  1  0
  2  3  1  0
  3  4  1  0
  4  5  1  0
  5  6  1  0
  6  7  1  0
  7  8  1  0
  1  9  1  0
  1 10  1  0
  1 11  1  0
  2 12  1  0
  2 13  1  0
  3 14  1  0
  3 15  1  0
  4 16  1  0
  4 17  1  0
  5 18  1  0
  5 19  1  0
  6 20  1  0
  6 21  1  0
  7 22  1  0
  7 23  1  0
  8 24  1  0
  8 25  1  0
  8 26  1  0
M  END
