
     RDKit          3D

 29 32  0  0  0  0  0  0  0  0999 V2000
    3.9966   -0.0954   -1.7749 O   0  0  0  0  0  0  0  0  0  0  0  0
    3.7955    0.2054   -0.6145 C   0  0  0  0  0  0  0  0  0  0  0  0
    4.7732    0.7650    0.1257 O   0  0  0  0  0  0  0  0  0  0  0  0
    2.5350    0.0492    0.1638 C   0  0  0  0  0  0  0  0  0  0  0  0
    2.6484   -0.1878    1.5429 C   0  0  0  0  0  0  0  0  0  0  0  0
    1.5127   -0.3708    2.3258 C   0  0  0  0  0  0  0  0  0  0  0  0
    0.2413   -0.3228    1.7491 C   0  0  0  0  0  0  0  0  0  0  0  0
   -0.8989   -0.5104    2.5402 C   0  0  0  0  0  0  0  0  0  0  0  0
   -2.1743   -0.4638    1.9782 C   0  0  0  0  0  0  0  0  0  0  0  0
   -2.3410   -0.2264    0.6103 C   0  0  0  0  0  0  0  0  0  0  0  0
   -3.6207   -0.1764    0.0381 C   0  0  0  0  0  0  0  0  0  0  0  0
   -3.7800    0.0623   -1.3251 C   0  0  0  0  0  0  0  0  0  0  0  0
   -2.6612    0.2545   -2.1325 C   0  0  0  0  0  0  0  0  0  0  0  0
   -1.3698    0.2096   -1.5863 C   0  0  0  0  0  0  0  0  0  0  0  0
   -0.2429    0.4038   -2.3853 C   0  0  0  0  0  0  0  0  0  0  0  0
    1.0395    0.3564   -1.8321 C   0  0  0  0  0  0  0  0  0  0  0  0
    1.2557    0.1073   -0.4567 C   0  0  0  0  0  0  0  0  0  0  0  0
    0.1060   -0.0828    0.3580 C   0  0  0  0  0  0  0  0  0  0  0  0
   -1.1994   -0.0336   -0.2055 C   0  0  0  0  0  0  0  0  0  0  0  0
    5.5282    0.8286   -0.4962 H   0  0  0  0  0  0  0  0  0  0  0  0
    3.6261   -0.2397    2.0175 H   0  0  0  0  0  0  0  0  0  0  0  0
    1.6328   -0.5542    3.3916 H   0  0  0  0  0  0  0  0  0  0  0  0
   -0.8065   -0.6959    3.6085 H   0  0  0  0  0  0  0  0  0  0  0  0
   -3.0381   -0.6142    2.6220 H   0  0  0  0  0  0  0  0  0  0  0  0
   -4.5062   -0.3234    0.6527 H   0  0  0  0  0  0  0  0  0  0  0  0
   -4.7760    0.0989   -1.7585 H   0  0  0  0  0  0  0  0  0  0  0  0
   -2.8044    0.4404   -3.1947 H   0  0  0  0  0  0  0  0  0  0  0  0
   -0.3456    0.5951   -3.4515 H   0  0  0  0  0  0  0  0  0  0  0  0
    1.8739    0.5213   -2.5105 H   0  0  0  0  0  0  0  0  0  0  0  0
  1  2  2  0
  2  3  1  0
  2  4  1  0
  4  5  1  0
  5  6  2  0
  6  7  1  0
  7  8  2  0
  8  9  1  0
  9 10  2  0
 10 11  1  0
 11 12  2  0
 12 13  1  0
 13 14  2  0
 14 15  1  0
 15 16  2  0
 16 17  1  0
 17 18  1  0
 18 19  2  0
 17  4  2  0
 18  7  1  0
 19 10  1  0
 19 14  1  0
  3 20  1  0
  5 21  1  0
  6 22  1  0
  8 23  1  0
  9 24  1  0
 11 25  1  0
 12 26  1  0
 13 27  1  0
 15 28  1  0
 16 29  1  0
M  END
