
     RDKit          3D

 28 31  0  0  0  0  0  0  0  0999 V2000
    3.7856   -2.1736   -0.9576 O   0  0  0  0  0  0  0  0  0  0  0  0
    3.8618   -1.1243   -0.3231 C   0  0  0  0  0  0  0  0  0  0  0  0
    5.2655   -0.6411    0.6063 Cl  0  0  0  0  0  0  0  0  0  0  0  0
    2.6928   -0.1999   -0.3552 C   0  0  0  0  0  0  0  0  0  0  0  0
    2.9443    1.1395   -0.6851 C   0  0  0  0  0  0  0  0  0  0  0  0
    1.8970    2.0543   -0.7396 C   0  0  0  0  0  0  0  0  0  0  0  0
    0.5865    1.6499   -0.4655 C   0  0  0  0  0  0  0  0  0  0  0  0
   -0.4652    2.5727   -0.5211 C   0  0  0  0  0  0  0  0  0  0  0  0
   -1.7756    2.1805   -0.2472 C   0  0  0  0  0  0  0  0  0  0  0  0
   -2.0671    0.8548    0.0911 C   0  0  0  0  0  0  0  0  0  0  0  0
   -3.3816    0.4527    0.3700 C   0  0  0  0  0  0  0  0  0  0  0  0
   -3.6630   -0.8694    0.7076 C   0  0  0  0  0  0  0  0  0  0  0  0
   -2.6333   -1.8057    0.7711 C   0  0  0  0  0  0  0  0  0  0  0  0
   -1.3095   -1.4313    0.4972 C   0  0  0  0  0  0  0  0  0  0  0  0
   -0.2694   -2.3605    0.5599 C   0  0  0  0  0  0  0  0  0  0  0  0
    1.0455   -1.9774    0.2844 C   0  0  0  0  0  0  0  0  0  0  0  0
    1.3762   -0.6497   -0.0709 C   0  0  0  0  0  0  0  0  0  0  0  0
    0.3206    0.2980   -0.1288 C   0  0  0  0  0  0  0  0  0  0  0  0
   -1.0169   -0.0928    0.1525 C   0  0  0  0  0  0  0  0  0  0  0  0
    3.9511    1.4802   -0.9175 H   0  0  0  0  0  0  0  0  0  0  0  0
    2.1133    3.0882   -1.0024 H   0  0  0  0  0  0  0  0  0  0  0  0
   -0.2761    3.6127   -0.7797 H   0  0  0  0  0  0  0  0  0  0  0  0
   -2.5685    2.9235   -0.3001 H   0  0  0  0  0  0  0  0  0  0  0  0
   -4.1990    1.1691    0.3260 H   0  0  0  0  0  0  0  0  0  0  0  0
   -4.6853   -1.1705    0.9213 H   0  0  0  0  0  0  0  0  0  0  0  0
   -2.8723   -2.8334    1.0365 H   0  0  0  0  0  0  0  0  0  0  0  0
   -0.4688   -3.3977    0.8220 H   0  0  0  0  0  0  0  0  0  0  0  0
    1.8114   -2.7488    0.3478 H   0  0  0  0  0  0  0  0  0  0  0  0
  1  2  2  0
  2  3  1  0
  2  4  1  0
  4  5  1  0
  5  6  2  0
  6  7  1  0
  7  8  2  0
  8  9  1  0
  9 10  2  0
 10 11  1  0
 11 12  2  0
 12 13  1  0
 13 14  2  0
 14 15  1  0
 15 16  2  0
 16 17  1  0
 17 18  1  0
 18 19  2  0
 17  4  2  0
 18  7  1  0
 19 10  1  0
 19 14  1  0
  5 20  1  0
  6 21  1  0
  8 22  1  0
  9 23  1  0
 11 24  1  0
 12 25  1  0
 13 26  1  0
 15 27  1  0
 16 28  1  0
M  END
