
     RDKit          3D

  5  4  0  0  0  0  0  0  0  0999 V2000
   -0.8251   -0.5194   -0.9243 F   0  0  0  0  0  0  0  0  0  0  0  0
   -0.0000   -0.0000   -0.0000 C   0  0  0  0  0  0  0  0  0  0  0  0
   -0.2572    1.3108    0.1439 F   0  0  0  0  0  0  0  0  0  0  0  0
   -0.1917   -0.6255    1.1735 F   0  0  0  0  0  0  0  0  0  0  0  0
    1.2740   -0.1659   -0.3931 F   0  0  0  0  0  0  0  0  0  0  0  0
  1  2  1  0
  2  3  1  0
  2  4  1  0
  2  5  1  0
M  END
