
     RDKit          3D

  4  3  0  0  0  0  0  0  0  0999 V2000
   -0.0381    1.4105   -0.2663 O   0  0  0  0  0  0  0  0  0  0  0  0
   -0.0099    0.2092    0.6315 S   0  0  0  0  0  0  0  0  0  0  0  0
   -1.5139   -0.8532   -0.1924 Cl  0  0  0  0  0  0  0  0  0  0  0  0
    1.5619   -0.7665   -0.1729 Cl  0  0  0  0  0  0  0  0  0  0  0  0
  1  2  2  0
  2  3  1  0
  2  4  1  0
M  END
