
     RDKit          3D

  5  4  0  0  0  0  0  0  0  0999 V2000
    1.2430   -0.4423   -0.1332 F   0  0  0  0  0  0  0  0  0  0  0  0
   -0.0000    0.0706   -0.0126 C   0  0  0  0  0  0  0  0  0  0  0  0
   -0.8021   -0.5761   -0.8849 F   0  0  0  0  0  0  0  0  0  0  0  0
   -0.4408   -0.1989    1.2347 F   0  0  0  0  0  0  0  0  0  0  0  0
   -0.0001    1.1466   -0.2041 H   0  0  0  0  0  0  0  0  0  0  0  0
  1  2  1  0
  2  3  1  0
  2  4  1  0
  2  5  1  0
M  END
